6

C       0.684849556930812     -0.022898192128680     -0.000002889056883
H       1.080356201931547      0.994834534113982      0.000657257992583
H       1.038836804529317     -0.547977919044423      0.898198700220791
H       1.038951106806798     -0.546879490033140     -0.898802057492732
O      -0.756535844244009      0.121395740823766     -0.000003573790640
H      -1.214954706192237     -0.733753902770382     -0.000007976482991
